Version 4
SHEET 1 1496 680
WIRE 576 256 560 256
WIRE 624 256 576 256
WIRE -144 272 -144 256
WIRE -96 272 -144 272
WIRE -32 272 -32 256
WIRE -32 272 -96 272
WIRE -96 288 -96 272
FLAG -96 288 0
FLAG -32 176 1.65V
FLAG -144 176 3.3V
FLAG -352 240 1.65V
FLAG -352 160 SIG
FLAG 368 240 1.65V
FLAG 368 208 SIG
FLAG 576 192 3.3V
FLAG 576 224 0
FLAG -608 192 1.65V
FLAG -608 112 SIG2
SYMBOL voltage -144 160 R0
WINDOW 3 -63 102 Left 2
WINDOW 123 0 0 Left 2
WINDOW 39 0 0 Left 2
SYMATTR Value 3.3V
SYMATTR InstName V1
SYMBOL voltage -32 160 R0
WINDOW 123 0 0 Left 2
WINDOW 39 0 0 Left 2
SYMATTR InstName V2
SYMATTR Value 1.65V
SYMBOL band-reject-part-SUB 464 224 R0
WINDOW 39 -33 -128 Bottom 2
SYMATTR SpiceLine C=100n R1=8K R2=127.3K R3=7.5K
SYMATTR InstName X1
SYMBOL bv -352 144 R0
WINDOW 3 -105 202 Left 2
SYMATTR Value V=lin_sweep(time,45.0,55.0,.1)
SYMATTR InstName B1
SYMBOL bv -608 96 R0
WINDOW 3 -105 202 Left 2
SYMATTR Value V=f_lin(time,45.0,55.0,.1)
SYMATTR InstName B2
TEXT -208 312 Left 2 !.tran 0 .1 0 100n
TEXT 32 320 Left 2 !;ac oct 1024 1 1K
TEXT -344 16 Left 2 !.inc spice_func.txt
TEXT -712 392 Left 2 !.meas lin1 find V(sig2) at=0\n.meas lin2 find V(sig2) at=500m
