Version 4
SHEET 1 1496 680
WIRE 576 256 560 256
WIRE 624 256 576 256
WIRE -144 272 -144 256
WIRE -96 272 -144 272
WIRE -32 272 -32 256
WIRE -32 272 -96 272
WIRE -96 288 -96 272
FLAG -96 288 0
FLAG -32 176 1.65V
FLAG -144 176 3.3V
FLAG -352 240 1.65V
FLAG -352 160 SIG
FLAG 368 240 1.65V
FLAG 368 208 SIG
FLAG 576 192 3.3V
FLAG 576 224 0
SYMBOL voltage -144 160 R0
WINDOW 3 -63 102 Left 2
WINDOW 123 0 0 Left 2
WINDOW 39 0 0 Left 2
SYMATTR Value 3.3V
SYMATTR InstName V1
SYMBOL voltage -32 160 R0
WINDOW 123 0 0 Left 2
WINDOW 39 0 0 Left 2
SYMATTR InstName V2
SYMATTR Value 1.65V
SYMBOL voltage -352 144 R0
WINDOW 123 32 71 Left 2
WINDOW 39 0 0 Left 2
WINDOW 3 24 44 Left 2
SYMATTR Value2 AC 1
SYMATTR Value ""
SYMATTR InstName V3
SYMBOL band-reject-part-SUB 464 224 R0
WINDOW 39 -33 -128 Bottom 2
SYMATTR SpiceLine C={mc(100n,0.01)} R1={mc(8K,0.01)} R2={mc(127.3K,0.01)} R3={mc(7.5K,0.01)}
SYMATTR InstName X1
TEXT -208 312 Left 2 !;tran 0 1 0 100n
TEXT 32 320 Left 2 !.ac oct 1024 1 1K
TEXT 16 368 Left 2 !.step param run 1 100 1
