Version 4
SHEET 1 1232 680
WIRE 272 16 176 16
WIRE 464 16 352 16
WIRE 544 32 384 32
WIRE 96 64 48 64
WIRE 176 64 176 16
WIRE 176 64 160 64
WIRE 192 64 176 64
WIRE 288 64 256 64
WIRE 384 64 384 32
WIRE 288 80 288 64
WIRE 352 80 288 80
WIRE 464 96 464 16
WIRE 464 96 416 96
WIRE 544 96 464 96
WIRE 48 112 48 64
WIRE 48 112 0 112
WIRE 352 112 320 112
WIRE 48 160 48 112
WIRE 176 160 128 160
WIRE 208 160 176 160
WIRE 288 160 288 80
WIRE 384 160 384 128
WIRE 544 160 384 160
WIRE 320 208 320 112
WIRE 464 208 464 96
WIRE 464 208 320 208
FLAG 176 224 IN_REF
IOPIN 176 224 In
FLAG 0 112 IN
IOPIN 0 112 In
FLAG 544 32 ALIM-
IOPIN 544 32 BiDir
FLAG 544 96 OUT
IOPIN 544 96 Out
FLAG 544 160 ALIM+
IOPIN 544 160 BiDir
SYMBOL cap 160 48 R90
WINDOW 0 0 32 VBottom 2
WINDOW 3 32 32 VTop 2
SYMATTR InstName C1
SYMATTR Value {C}
SYMBOL cap 256 48 R90
WINDOW 0 0 32 VBottom 2
WINDOW 3 32 32 VTop 2
SYMATTR InstName C2
SYMATTR Value {C}
SYMBOL cap 192 224 R180
WINDOW 0 24 56 Left 2
WINDOW 3 24 8 Left 2
SYMATTR InstName C3
SYMATTR Value {2*C}
SYMBOL res 144 144 R90
WINDOW 0 0 56 VBottom 2
WINDOW 3 32 56 VTop 2
SYMATTR InstName R1
SYMATTR Value {R1}
SYMBOL res 304 144 R90
WINDOW 0 0 56 VBottom 2
WINDOW 3 32 56 VTop 2
SYMATTR InstName R2
SYMATTR Value {R2}
SYMBOL res 368 0 R90
WINDOW 0 0 56 VBottom 2
WINDOW 3 32 56 VTop 2
SYMATTR InstName R3
SYMATTR Value {R3}
SYMBOL Opamps\\UniversalOpamp2 384 96 M180
SYMATTR InstName U2
SYMATTR Value2 Avol=1Meg GBW=10Meg Slew=100Meg
TEXT 72 -216 Left 2 ;VCVS Band Reject Filter:\nH(s) = (S^2 + W0^2) / (S^2 + (W0/Q) * S + W0^2)\n***** PARAM to define C,R1,R2,R3
