Version 4
SHEET 1 1496 680
WIRE 384 224 320 224
WIRE -144 272 -144 256
WIRE -96 272 -144 272
WIRE -32 272 -32 256
WIRE -32 272 -96 272
WIRE 896 272 848 272
WIRE -96 288 -96 272
FLAG -96 288 0
FLAG -32 176 1.65V
FLAG -144 176 3.3V
FLAG 320 160 3.3V
FLAG 320 192 0
FLAG 384 304 0
FLAG 160 208 1.65V
FLAG -352 240 1.65V
FLAG -352 160 SIG
FLAG 160 176 SIG
FLAG 896 352 0
FLAG 848 208 3.3V
FLAG 848 240 0
FLAG 688 224 SIG
FLAG 688 256 1.65V
SYMBOL MFB-BandPass-SUB 240 192 R0
WINDOW 39 104 -88 Bottom 2
SYMATTR SpiceLine C1=470n C2=100n Q=3 K=10 F0=25
SYMATTR InstName X1
SYMBOL voltage -144 160 R0
WINDOW 3 -63 102 Left 2
WINDOW 123 0 0 Left 2
WINDOW 39 0 0 Left 2
SYMATTR Value 3.3V
SYMATTR InstName V1
SYMBOL voltage -32 160 R0
WINDOW 123 0 0 Left 2
WINDOW 39 0 0 Left 2
SYMATTR InstName V2
SYMATTR Value 1.65V
SYMBOL res 368 208 R0
SYMATTR InstName R1
SYMATTR Value 10K
SYMBOL voltage -352 144 R0
WINDOW 123 32 71 Left 2
WINDOW 39 0 0 Left 2
SYMATTR Value2 AC 1
SYMATTR InstName V3
SYMATTR Value ""
SYMBOL MFB-BandPass-SUB 768 240 R0
WINDOW 39 104 -88 Bottom 2
SYMATTR SpiceLine C1=100n C2=47n Q=5 K=30 F0=75
SYMATTR InstName X2
SYMBOL res 880 256 R0
SYMATTR InstName R2
SYMATTR Value 10K
TEXT -208 312 Left 2 !;tran 0 1 0 100n
TEXT 32 320 Left 2 !.ac oct 1024 1 1K
TEXT 600 408 Left 2 !.meas AC Res1 Param (X1:R1)
