Version 4
SHEET 1 1212 1052
WIRE -240 -192 -336 -192
WIRE 256 -192 160 -192
WIRE -336 -176 -336 -192
WIRE -240 -176 -240 -192
WIRE 160 -176 160 -192
WIRE 256 -176 256 -192
WIRE -1520 0 -1520 -16
WIRE -1472 0 -1520 0
WIRE -1408 0 -1408 -16
WIRE -1408 0 -1472 0
WIRE -1472 16 -1472 0
WIRE 256 224 192 224
WIRE 464 272 416 272
WIRE 496 272 464 272
WIRE -352 336 -448 336
WIRE -64 336 -96 336
WIRE -16 336 -64 336
WIRE -448 384 -448 336
WIRE -448 384 -560 384
WIRE -96 384 -96 336
WIRE -96 384 -144 384
WIRE 176 384 144 384
WIRE 208 384 176 384
WIRE 896 384 704 384
WIRE 704 448 704 384
WIRE 768 448 704 448
WIRE 896 464 832 464
WIRE 1008 464 896 464
WIRE 1088 464 1008 464
WIRE 704 480 704 448
WIRE 768 480 736 480
WIRE 736 512 736 480
WIRE 576 688 496 688
WIRE 608 688 576 688
FLAG -1472 16 0
FLAG -1408 -96 1.65V
FLAG -1520 -96 3.3V
FLAG 800 496 0
FLAG 800 432 3.3V
FLAG 736 512 1.65V
FLAG 624 384 Vpb1
FLAG 624 480 Vpb2
FLAG -1520 192 Sig_coil
FLAG -1520 272 1.65V
FLAG 1008 464 Vadd
FLAG -336 -96 1.65V
FLAG -240 -96 0
FLAG 160 -96 1.65V
FLAG 256 -96 0
FLAG -720 336 1.65V
FLAG -720 368 Sig_coil
FLAG -560 320 3.3V
FLAG -560 352 0
FLAG -352 368 1.65V
FLAG -144 320 3.3V
FLAG -144 352 0
FLAG -448 336 Vint
FLAG -16 368 1.65V
FLAG 256 256 1.65V
FLAG 144 320 3.3V
FLAG 416 208 3.3V
FLAG 144 352 0
FLAG 416 240 0
FLAG -64 336 Vsb
FLAG 176 384 Vpb1
FLAG 464 272 Vpb2
FLAG 288 640 Vadd
FLAG 288 672 1.65V
FLAG 496 624 3.3V
FLAG 496 656 0
FLAG 576 688 Vout
FLAG 192 224 Vsb
SYMBOL voltage -1520 -112 R0
WINDOW 3 -63 102 Left 2
WINDOW 123 0 0 Left 2
WINDOW 39 0 0 Left 2
SYMATTR Value 3.3V
SYMATTR InstName V1
SYMBOL voltage -1408 -112 R0
WINDOW 123 0 0 Left 2
WINDOW 39 0 0 Left 2
SYMATTR InstName V2
SYMATTR Value 1.65V
SYMBOL Opamps\\UniversalOpamp2 800 464 R0
SYMATTR InstName U1
SYMBOL res 720 368 R90
WINDOW 0 2 62 VBottom 2
WINDOW 3 32 56 VTop 2
SYMATTR InstName R4
SYMATTR Value 1k
SYMBOL res 720 464 R90
WINDOW 0 2 54 VBottom 2
WINDOW 3 32 56 VTop 2
SYMATTR InstName R5
SYMATTR Value 1k
SYMBOL res 880 368 R0
SYMATTR InstName R6
SYMATTR Value 22k
SYMBOL bv -1520 176 R0
WINDOW 3 -213 172 Left 2
SYMATTR Value V=sig_coil(time,Fm,Fm/2,100,2.3*sqrt(2),M) + 0*ddt(20*white(1000*time)*M)
SYMATTR InstName B4
SYMBOL bv -336 -192 R0
WINDOW 3 -162 195 Left 2
SYMATTR Value V=sig_rx(time,Fm,Fm/2,sqrt(2))
SYMATTR InstName B1
SYMBOL res -256 -192 R0
SYMATTR InstName R8
SYMATTR Value 10k
SYMBOL bv 160 -192 R0
WINDOW 3 -162 195 Left 2
SYMATTR Value V=white(1000*time)
SYMATTR InstName B2
SYMBOL res 240 -192 R0
SYMATTR InstName R9
SYMATTR Value 10k
SYMBOL integrateur-part-SUB -640 352 R0
WINDOW 39 5 -104 Bottom 2
SYMATTR SpiceLine R1=33k R2=330K C1=100n
SYMATTR InstName X6
SYMBOL band-reject-part-SUB -256 352 R0
WINDOW 39 10 -86 Bottom 2
SYMATTR SpiceLine R1=8K R2=127.3K R3=7.5K C=100n
SYMATTR InstName X7
SYMBOL MFB-BandPass-part-SUB 64 352 R0
WINDOW 39 -6 118 Bottom 2
SYMATTR SpiceLine R1=12.7k R2=71.5K R3=787K C1=100n C2=47n
SYMATTR InstName X8
SYMBOL MFB-BandPass-part-SUB 336 240 R0
WINDOW 39 73 -90 Bottom 2
SYMATTR SpiceLine R1=4.3K R2=24K R3=270K C1=100n C2=47n
SYMATTR InstName X9
SYMBOL VCVS-LowPass-ButterworthNoGain-part-SUB 384 656 R0
WINDOW 39 0 -91 Bottom 2
SYMATTR SpiceLine R1=18K R2=30K C2=100n C1=47n
SYMATTR InstName X10
TEXT -992 -56 Left 2 !.param Fm=50 M=220e-9
TEXT -992 -80 Left 2 !.inc spice_func.txt
TEXT -1584 40 Left 2 !.tran 0 1.1 0
