Version 4
SHEET 1 1212 680
WIRE 160 176 96 176
WIRE 256 176 160 176
WIRE -112 192 -112 176
WIRE -64 192 -112 192
WIRE 0 192 0 176
WIRE 0 192 -64 192
WIRE -64 208 -64 192
WIRE 96 224 96 176
WIRE 512 224 464 224
FLAG -64 208 0
FLAG 0 96 1.65V
FLAG -112 96 3.3V
FLAG 256 208 1.65V
FLAG 464 160 3.3V
FLAG 464 192 0
FLAG 512 304 0
FLAG 96 304 1.65V
FLAG 160 176 Sigtest
SYMBOL voltage -112 80 R0
WINDOW 3 -63 102 Left 2
WINDOW 123 0 0 Left 2
WINDOW 39 0 0 Left 2
SYMATTR Value 3.3V
SYMATTR InstName V1
SYMBOL voltage 0 80 R0
WINDOW 123 0 0 Left 2
WINDOW 39 0 0 Left 2
SYMATTR InstName V2
SYMATTR Value 1.65V
SYMBOL res 496 208 R0
SYMATTR InstName R1
SYMATTR Value 10k
SYMBOL voltage 96 208 R0
WINDOW 123 24 124 Left 2
WINDOW 39 0 0 Left 2
SYMATTR Value2 AC 1
SYMATTR InstName V3
SYMATTR Value ""
SYMBOL VCVS-LowPass-ButterworthNoGain-part-SUB 352 192 R0
WINDOW 39 2 -86 Bottom 2
SYMATTR InstName X1
SYMATTR SpiceLine C2=100n C1=47n R1=18K R2=30K
TEXT -176 232 Left 2 !;tran 0 1 0
TEXT 216 304 Left 2 !.ac oct 1024 1 10k
