Version 4
SHEET 1 1128 888
WIRE 320 -48 320 -96
WIRE 320 -48 176 -48
WIRE 464 -48 320 -48
WIRE 176 -32 176 -48
WIRE 320 -32 320 -48
WIRE 464 -32 464 -48
WIRE -480 0 -528 0
WIRE -304 0 -400 0
WIRE -528 16 -528 0
WIRE -304 16 -304 0
WIRE -272 16 -304 16
WIRE 176 64 176 48
WIRE 320 64 320 48
WIRE 464 64 464 48
WIRE -272 112 -272 96
WIRE -272 112 -400 112
WIRE -480 144 -528 144
WIRE -400 144 -400 112
WIRE 176 176 176 144
WIRE 320 176 320 144
WIRE 464 176 464 144
WIRE -272 208 -272 192
WIRE -272 208 -336 208
WIRE -480 256 -528 256
WIRE -336 256 -336 208
WIRE -336 256 -400 256
WIRE -304 288 -304 16
WIRE -272 288 -304 288
WIRE 176 288 176 256
WIRE 320 288 320 256
WIRE 464 288 464 256
WIRE 176 304 176 288
WIRE 320 304 320 288
WIRE 464 304 464 288
WIRE -848 640 -848 624
WIRE -704 640 -704 624
WIRE -560 640 -560 624
WIRE -336 640 -336 624
WIRE -192 640 -192 624
WIRE -48 640 -48 624
WIRE -848 880 -848 720
WIRE -704 880 -704 720
WIRE -704 880 -848 880
WIRE -560 880 -560 720
WIRE -560 880 -704 880
WIRE -336 880 -336 720
WIRE -192 880 -192 720
WIRE -192 880 -336 880
WIRE -48 880 -48 720
WIRE -48 880 -192 880
FLAG -528 96 0
FLAG -528 224 0
FLAG -528 336 0
FLAG 320 -96 0
FLAG 464 288 Vs1
FLAG 320 288 Vs2
FLAG 176 288 Vs3
FLAG -560 624 Vs1
FLAG -704 624 Vs2
FLAG -848 624 Vs3
FLAG -48 624 Vs1
FLAG -192 624 Vs2
FLAG -336 624 Vs3
SYMBOL ind2 -288 0 R0
SYMATTR InstName L1
SYMATTR Value {Lp}
SYMATTR Type ind
SYMATTR SpiceLine Rser=1
SYMBOL ind2 -288 96 R0
SYMATTR InstName L2
SYMATTR Value {Lp}
SYMATTR Type ind
SYMATTR SpiceLine Rser=1
SYMBOL ind2 -288 192 R0
SYMATTR InstName L3
SYMATTR Value {Lp}
SYMATTR Type ind
SYMATTR SpiceLine Rser=1
SYMBOL bv -528 0 R0
WINDOW 0 -42 3 Left 2
WINDOW 3 -336 83 Left 2
SYMATTR InstName B1
SYMATTR Value V=Ap*CausalSin(time,50,0)
SYMBOL bv -528 128 R0
WINDOW 0 -80 33 Left 2
WINDOW 3 -387 70 Left 2
SYMATTR InstName B2
SYMATTR Value V=Ap*CausalSin(time,50,-120)
SYMBOL bv -528 240 R0
WINDOW 0 -80 33 Left 2
WINDOW 3 -399 81 Left 2
SYMATTR InstName B3
SYMATTR Value V=Ap*CausalSin(time,50,-240)
SYMBOL res -384 -16 R90
WINDOW 0 0 56 VBottom 2
WINDOW 3 32 56 VTop 2
SYMATTR InstName R1
SYMATTR Value {Rp}
SYMBOL res -384 128 R90
WINDOW 0 0 56 VBottom 2
WINDOW 3 32 56 VTop 2
SYMATTR InstName R2
SYMATTR Value {Rp}
SYMBOL res -384 240 R90
WINDOW 0 0 56 VBottom 2
WINDOW 3 32 56 VTop 2
SYMATTR InstName R3
SYMATTR Value {Rp}
SYMBOL ind2 448 -48 R0
SYMATTR InstName L4
SYMATTR Value {Ls}
SYMATTR Type ind
SYMBOL ind2 304 -48 R0
SYMATTR InstName L5
SYMATTR Value {Ls}
SYMATTR Type ind
SYMBOL ind2 160 -48 R0
SYMATTR InstName L6
SYMATTR Value {Ls}
SYMATTR Type ind
SYMBOL res 448 48 R0
SYMATTR InstName R4
SYMATTR Value {Rp}
SYMBOL res 304 48 R0
SYMATTR InstName R5
SYMATTR Value {Rp}
SYMBOL res 160 48 R0
SYMATTR InstName R6
SYMATTR Value {Rp}
SYMBOL bv 176 160 R0
WINDOW 3 -50 -76 VRight 2
SYMATTR Value V=-{M}*ddt(I(L4)+I(L5))
SYMATTR InstName B6
SYMBOL bv 464 160 R0
WINDOW 3 -50 -76 VRight 2
SYMATTR Value V=-{M}*ddt(I(L5)+I(L6))
SYMATTR InstName B4
SYMBOL bv 320 160 R0
WINDOW 3 -50 -76 VRight 2
SYMATTR Value V=-{M}*ddt(I(L4)+I(L6))
SYMATTR InstName B5
SYMBOL res -864 624 R0
SYMATTR InstName R10
SYMATTR Value 100
SYMBOL res -720 624 R0
SYMATTR InstName R11
SYMATTR Value 200
SYMBOL res -576 624 R0
SYMATTR InstName R12
SYMATTR Value 3
SYMBOL res -352 624 R0
SYMATTR InstName R7
SYMATTR Value 150
SYMBOL res -208 624 R0
SYMATTR InstName R8
SYMATTR Value 300
SYMBOL res -64 624 R0
SYMATTR InstName R9
SYMATTR Value 3
TEXT -824 376 Left 2 !.tran 0 0.1 0 100u
TEXT 8 -288 Left 2 !.param  Ls=100m Lp=Ls*(Ap*sqrt(3)/As)**2 Rp=1 M=0.5*Ls\n.param Ap=11k As=400
TEXT -296 -280 Left 2 !.inc func.txt
TEXT -288 -240 Left 2 !K1 L1 L4 1\nK2 L2 L5 1\nK3 L3 L6 1
